#CPQA DEPENDS ../fe2-A-ks/fe2-A-ks.inp
#CPQA PRERUN "cp ../fe2-A-ks/RESTART.1 RESTART.R1"
#CPQA PRERUN "cp ../fe2-A-ks/RESTART.1 RESTART.R2"
&CPMD
  USE_CUFFT 
  FFT_N_STREAMS_PER_DEVICE
  2
  FFT_N_DEVICES_PER_TASK
  1
  USE_CUBLAS
  BLAS_N_STREAMS_PER_DEVICE
  2
  BLAS_N_DEVICES_PER_TASK
  1
 OPTIMIZE WAVEFUNCTION
 CENTER MOLECULE OFF
 RESTART WAVEFUNCTION COORDINATES
 REALSPACE WFN KEEP
 LSD
 ORTHOGONALIZE LOWDIN MATRIX
 COMBINE SYSTEMS REFLECT SAB
  14 14  5 5 4 0.01
  5  10
&END
  
&SYSTEM
  POISSON SOLVER HOCKNEY
 SYMMETRY
  0
 ANGSTROM
 CELL ABSOLUTE
  13.50  8.0  8.0  0.0  0.0  0.0
 CUTOFF
  10.0
 CHARGE
  4
 MULTIPLICITY
  9 
&END 

&DFT
 NEWCODE
 FUNCTIONAL PBE 
&END  

&ATOMS
*FE_MT_PBE_semic   KLEINMAN-BYLANDER  RAGGIO=1.2
 LMAX=D  LOC=D
 1
 4.0000   4.0000   4.0000
*FE_MT_PBE_semic   KLEINMAN-BYLANDER  RAGGIO=1.2
 LMAX=D LOC=D 
  1
 9.5000   4.0000   4.0000 
&END

