#CPQA INCLUDE gromos.crd
#CPQA INCLUDE gromos.inp
#CPQA INCLUDE gromos.top
#CPQA DEPENDS ../ac_sp/ac_sp.inp
#CPQA PRERUN "cp ../ac_sp/RESTART.1 RESTART"
#CPQA TEST SCALAR '2nd Order Perturbation Energy' 5

&QMMM
 WRITE LOCALTEMP STEP 1
 TOPOLOGY
 gromos.top
 COORDINATES
 gromos.crd
 INPUT
 gromos.inp
 LONG RANGE ELECTROSTATIC COUPLING
 UPDATE LIST
 100
 NOSPLIT
 AMBER
 ARRAYSIZES
 MAXATT 111
 MAXAA2 1441
 MAXNRP 13547
 MAXNBT 113
 MAXBNH 8163
 MAXBON 4147
 MAXTTY 123
 MXQHEH 16232
 MAXTH  4157
 MAXQTY 100
 MAXHIH 100
 MAXQHI 100
 MAXPTY 114
 MXPHIH 16271
 MAXPHI 163
 MAXCAG 2818
 MAXAEX 52299
 MXEX14 16299
 END ARRAYSIZES
&END
 
&CPMD
  USE_CUFFT 
  FFT_N_STREAMS_PER_DEVICE
  2
  FFT_N_DEVICES_PER_TASK
  1
  USE_CUBLAS
  BLAS_N_STREAMS_PER_DEVICE
  2
  BLAS_N_DEVICES_PER_TASK
  1
 RESTART COORDINATES WAVEFUNCTION LINRES LATEST
 QMMM
 MOLECULAR DYNAMICS BO
 TDDFT
 ODIIS
 8
 TIMESTEP
 5
 MAXSTEP
 2
 MIRROR
&END

&DFT
  NEWCODE
  FUNCTIONAL PBE
&END

&TDDFT
 isc-shtddft
 2 10
 TAMM-DANCOFF
 STATES TRIPLET
 4
 FORCE STATE
 2
 DAVIDSON PARAMETER
 1000 1.D-8 50
 DAVIDSON RDIIS
 50 3 1.D-5
 ZMATRIX PARAMETER
 100 1.D-7
&END

&LINRES
  CONVERGENCE
  1.D-5
  MAXSTEP
  1000
  HTHRS
  0.5
  OPTIMIZER PCG
  tHAUTO
  1.D-1 1.D-3
&END

&SYSTEM
 POISSON SOLVER TUCKERMAN
 SYMMETRY
 0
 CHARGE
 0.0
 CELL ABSOLUTE
 15.0  10.0  10.0  0.0  0.0  0.0
 CUTOFF
 6.0
&END

&ATOMS
*C_MT_PBE KLEINMAN-BYLANDER
   LMAX=P
   3
   1 2 3
*O_MT_PBE KLEINMAN-BYLANDER
   LMAX=P
   1
   4
*H_MT_PBE KLEINMAN-BYLANDER
   LMAX=S
   6
   5 6 7 8 9 10
&END

