#CPQA DEPENDS ../../KS-ener/w-1-lsd/test.inp

#CPQA PRERUN "cp ../../KS-ener/w-1-lsd/RESTART.1 ."
#CPQA PRERUN "cp ../../KS-ener/w-1-lsd/GEOMETRY ."
#CPQA PRERUN "cp ../../KS-ener/w-1-lsd/LATEST ."

&CPMD
  USE_CUFFT 
  FFT_N_STREAMS_PER_DEVICE
  2
  FFT_N_DEVICES_PER_TASK
  1
  USE_CUBLAS
  BLAS_N_STREAMS_PER_DEVICE
  2
  BLAS_N_DEVICES_PER_TASK
  1
 PROPERTIES
 RESTART WAVEFUNCTION COORDINATES LATEST
 LSD
&END

&PROP
 CUBEFILE ORBITALS
 2
 5 6
&END

&DFT
  NEWCODE
  FUNCTIONAL BLYP
&END

&SYSTEM
  SYMMETRY
  1
  CELL
  8.0  1.0  1.0  0  0  0
  CUTOFF
  50.0

 STATES
  16
 OCCUPATION
  1.0  1.0  1.0  1.0  0.0  0.0  0.0  0.0
  1.0  1.0  1.0  1.0  0.0  0.0  0.0  0.0

&END

&ATOMS
*O_GTH_LDA
   LMAX=P
   1
7.68971253 6.867341 7.794387
*H_GTH_LDA
LMAX=S
2
6.60009853 7.699729 6.494025
8.89953653 8.132659 8.505975
&END

